*SPEF "ieee 1481-1999"
*DESIGN "top"
*DATE "14:42:40 Sunday March 02, 2025"
*VENDOR "The OpenROAD Project"
*PROGRAM "OpenROAD"
*VERSION "v2.0-19290-g6c60401f9"
*DESIGN_FLOW "NAME_SCOPE LOCAL" "PIN_CAP NONE"
*DIVIDER /
*DELIMITER :
*BUS_DELIMITER []
*T_UNIT 1 NS
*C_UNIT 1 PF
*R_UNIT 1 OHM
*L_UNIT 1 HENRY

*NAME_MAP
*1 _000_
*2 _001_
*3 _002_
*4 _003_
*5 _004_
*6 _005_
*7 _006_
*8 _007_
*9 _008_
*10 _009_
*11 _010_
*12 _011_
*13 _012_
*14 _013_
*15 _014_
*16 _015_
*17 _016_
*18 _017_
*19 _018_
*20 _019_
*21 _020_
*22 _021_
*23 _022_
*24 _023_
*25 _024_
*26 _025_
*27 _026_
*28 _027_
*29 _028_
*30 _029_
*31 _030_
*32 _031_
*33 _032_
*34 _033_
*35 _034_
*36 _035_
*37 _036_
*38 _037_
*39 _038_
*40 _039_
*41 _040_
*42 _041_
*43 _042_
*44 _043_
*45 _044_
*46 _045_
*47 _046_
*48 _047_
*49 _048_
*50 _049_
*51 _050_
*52 _051_
*53 _052_
*54 _053_
*55 _054_
*56 _055_
*57 _056_
*58 _057_
*59 _058_
*60 _059_
*61 _060_
*62 _061_
*63 _062_
*64 _063_
*65 _064_
*66 _065_
*67 _066_
*68 _067_
*69 _068_
*70 _069_
*71 _070_
*72 _071_
*73 _072_
*74 _073_
*75 _074_
*76 _075_
*77 _076_
*78 _077_
*79 _078_
*80 _079_
*81 _080_
*82 _081_
*83 _082_
*84 _083_
*85 _084_
*86 _085_
*87 _086_
*88 _087_
*89 _088_
*90 _089_
*91 _090_
*92 _091_
*93 _092_
*94 _093_
*95 _094_
*96 _095_
*97 _096_
*98 _097_
*99 _098_
*100 _099_
*101 _100_
*102 _101_
*103 _102_
*104 _103_
*105 _104_
*106 _105_
*107 _106_
*108 _107_
*109 _108_
*110 _109_
*111 _110_
*112 _111_
*113 _112_
*114 _113_
*115 _114_
*116 _115_
*117 _116_
*118 _117_
*119 _118_
*120 _119_
*121 _120_
*122 _121_
*123 _122_
*124 _123_
*125 _124_
*126 _125_
*127 _126_
*128 _127_
*129 _128_
*130 _129_
*131 _130_
*132 _131_
*133 _132_
*134 _133_
*135 _134_
*136 _135_
*137 _136_
*138 _137_
*139 _138_
*140 _139_
*141 _140_
*142 _141_
*143 _142_
*144 _143_
*145 _144_
*146 _145_
*147 _146_
*148 _147_
*149 _148_
*150 _149_
*151 _150_
*152 _151_
*153 _152_
*154 _153_
*155 _154_
*156 _155_
*157 _156_
*158 _157_
*159 _158_
*160 _159_
*161 _160_
*162 _161_
*163 _162_
*164 _163_
*165 _164_
*166 _165_
*167 _166_
*168 _167_
*169 _168_
*170 _169_
*171 _170_
*172 _171_
*173 _172_
*174 _173_
*175 _174_
*176 _175_
*177 _176_
*178 _177_
*179 _178_
*180 bit_cnt[0]
*181 bit_cnt[1]
*182 bit_cnt[2]
*183 bit_cnt[3]
*184 clk
*185 count[0]
*186 count[10]
*187 count[11]
*188 count[12]
*189 count[13]
*190 count[14]
*191 count[15]
*192 count[16]
*193 count[17]
*194 count[18]
*195 count[19]
*196 count[1]
*197 count[20]
*198 count[21]
*199 count[22]
*200 count[23]
*201 count[24]
*202 count[25]
*203 count[26]
*204 count[27]
*205 count[28]
*206 count[29]
*207 count[2]
*208 count[30]
*209 count[31]
*210 count[3]
*211 count[4]
*212 count[5]
*213 count[6]
*214 count[7]
*215 count[8]
*216 count[9]
*217 data[0]
*218 data[1]
*219 data[2]
*220 data[3]
*221 data[4]
*222 data[5]
*223 data[6]
*224 data[7]
*225 done_tx
*226 rs232_tx
*227 rst_n
*228 start
*229 uclk
*232 clknet_0_clk
*233 clknet_2_0__leaf_clk
*234 clknet_2_1__leaf_clk
*235 clknet_2_2__leaf_clk
*236 clknet_2_3__leaf_clk
*237 net1
*238 net2
*239 net3
*240 net4
*241 net5
*242 net6
*243 net7
*244 net8
*245 net9
*246 net10
*247 net11
*248 net12
*249 net13
*250 net14
*251 net15
*252 _179_
*253 _180_
*254 _181_
*255 _182_
*256 _183_
*257 _184_
*258 _185_
*259 _186_
*260 _187_
*261 _188_
*262 _189_
*263 _190_
*264 _191_
*265 _192_
*266 _193_
*267 _194_
*268 _195_
*269 _196_
*270 _197_
*271 _198_
*272 _199_
*273 _200_
*274 _201_
*275 _202_
*276 _203_
*277 _204_
*278 _205_
*279 _206_
*280 _207_
*281 _208_
*282 _209_
*283 _210_
*284 _211_
*285 _212_
*286 _213_
*287 _214_
*288 _215_
*289 _216_
*290 _217_
*291 _218_
*292 _219_
*293 _220_
*294 _221_
*295 _222_
*296 _223_
*297 _224_
*298 _225_
*299 _226_
*300 _227_
*301 _228_
*302 _229_
*303 _230_
*304 _231_
*305 _232_
*306 _233_
*307 _234_
*308 _235_
*309 _236_
*310 _237_
*311 _238_
*312 _239_
*313 _240_
*314 _241_
*315 _242_
*316 _243_
*317 _244_
*318 _245_
*319 _246_
*320 _247_
*321 _248_
*322 _249_
*323 _250_
*324 _251_
*325 _252_
*326 _253_
*327 _254_
*328 _255_
*329 _256_
*330 _257_
*331 _258_
*332 _259_
*333 _260_
*334 _261_
*335 _262_
*336 _263_
*337 _264_
*338 _265_
*339 _266_
*340 _267_
*341 _268_
*342 _269_
*343 _270_
*344 _271_
*345 _272_
*346 _273_
*347 _274_
*348 _275_
*349 _276_
*350 _277_
*351 _278_
*352 _279_
*353 _280_
*354 _281_
*355 _282_
*356 _283_
*357 _284_
*358 _285_
*359 _286_
*360 _287_
*361 _288_
*362 _289_
*363 _290_
*364 _291_
*365 _292_
*366 _293_
*367 _294_
*368 _295_
*369 _296_
*370 _297_
*371 _298_
*372 _299_
*373 _300_
*374 _301_
*375 _302_
*376 _303_
*377 _304_
*378 _305_
*379 _306_
*380 _307_
*381 _308_
*382 _309_
*383 _310_
*384 _311_
*385 _312_
*386 _313_
*387 _314_
*388 _315_
*389 _316_
*390 _317_
*391 _318_
*392 _319_
*393 _320_
*394 _321_
*395 _322_
*396 _323_
*397 _324_
*398 _325_
*399 _326_
*400 _327_
*401 _328_
*402 _329_
*403 _330_
*404 _331_
*405 _332_
*406 _333_
*407 _334_
*408 _335_
*409 _336_
*410 _337_
*411 _338_
*412 _339_
*413 _340_
*414 _341_
*415 _342_
*416 _343_
*417 _344_
*418 _345_
*419 _346_
*420 _347_
*421 _348_
*422 _349_
*423 _350_
*424 _351_
*425 _352_
*426 _353_
*427 _354_
*428 _355_
*429 _356_
*430 _357_
*431 PHY_EDGE_ROW_0_Right_0
*432 PHY_EDGE_ROW_1_Right_1
*433 PHY_EDGE_ROW_2_Right_2
*434 PHY_EDGE_ROW_3_Right_3
*435 PHY_EDGE_ROW_4_Right_4
*436 PHY_EDGE_ROW_5_Right_5
*437 PHY_EDGE_ROW_6_Right_6
*438 PHY_EDGE_ROW_7_Right_7
*439 PHY_EDGE_ROW_8_Right_8
*440 PHY_EDGE_ROW_9_Right_9
*441 PHY_EDGE_ROW_10_Right_10
*442 PHY_EDGE_ROW_11_Right_11
*443 PHY_EDGE_ROW_12_Right_12
*444 PHY_EDGE_ROW_13_Right_13
*445 PHY_EDGE_ROW_14_Right_14
*446 PHY_EDGE_ROW_15_Right_15
*447 PHY_EDGE_ROW_16_Right_16
*448 PHY_EDGE_ROW_17_Right_17
*449 PHY_EDGE_ROW_18_Right_18
*450 PHY_EDGE_ROW_19_Right_19
*451 PHY_EDGE_ROW_20_Right_20
*452 PHY_EDGE_ROW_21_Right_21
*453 PHY_EDGE_ROW_22_Right_22
*454 PHY_EDGE_ROW_23_Right_23
*455 PHY_EDGE_ROW_24_Right_24
*456 PHY_EDGE_ROW_25_Right_25
*457 PHY_EDGE_ROW_26_Right_26
*458 PHY_EDGE_ROW_27_Right_27
*459 PHY_EDGE_ROW_28_Right_28
*460 PHY_EDGE_ROW_29_Right_29
*461 PHY_EDGE_ROW_30_Right_30
*462 PHY_EDGE_ROW_31_Right_31
*463 PHY_EDGE_ROW_32_Right_32
*464 PHY_EDGE_ROW_33_Right_33
*465 PHY_EDGE_ROW_34_Right_34
*466 PHY_EDGE_ROW_35_Right_35
*467 PHY_EDGE_ROW_36_Right_36
*468 PHY_EDGE_ROW_37_Right_37
*469 PHY_EDGE_ROW_38_Right_38
*470 PHY_EDGE_ROW_39_Right_39
*471 PHY_EDGE_ROW_40_Right_40
*472 PHY_EDGE_ROW_41_Right_41
*473 PHY_EDGE_ROW_42_Right_42
*474 PHY_EDGE_ROW_43_Right_43
*475 PHY_EDGE_ROW_44_Right_44
*476 PHY_EDGE_ROW_45_Right_45
*477 PHY_EDGE_ROW_46_Right_46
*478 PHY_EDGE_ROW_47_Right_47
*479 PHY_EDGE_ROW_48_Right_48
*480 PHY_EDGE_ROW_49_Right_49
*481 PHY_EDGE_ROW_50_Right_50
*482 PHY_EDGE_ROW_51_Right_51
*483 PHY_EDGE_ROW_52_Right_52
*484 PHY_EDGE_ROW_53_Right_53
*485 PHY_EDGE_ROW_54_Right_54
*486 PHY_EDGE_ROW_55_Right_55
*487 PHY_EDGE_ROW_56_Right_56
*488 PHY_EDGE_ROW_0_Left_57
*489 PHY_EDGE_ROW_1_Left_58
*490 PHY_EDGE_ROW_2_Left_59
*491 PHY_EDGE_ROW_3_Left_60
*492 PHY_EDGE_ROW_4_Left_61
*493 PHY_EDGE_ROW_5_Left_62
*494 PHY_EDGE_ROW_6_Left_63
*495 PHY_EDGE_ROW_7_Left_64
*496 PHY_EDGE_ROW_8_Left_65
*497 PHY_EDGE_ROW_9_Left_66
*498 PHY_EDGE_ROW_10_Left_67
*499 PHY_EDGE_ROW_11_Left_68
*500 PHY_EDGE_ROW_12_Left_69
*501 PHY_EDGE_ROW_13_Left_70
*502 PHY_EDGE_ROW_14_Left_71
*503 PHY_EDGE_ROW_15_Left_72
*504 PHY_EDGE_ROW_16_Left_73
*505 PHY_EDGE_ROW_17_Left_74
*506 PHY_EDGE_ROW_18_Left_75
*507 PHY_EDGE_ROW_19_Left_76
*508 PHY_EDGE_ROW_20_Left_77
*509 PHY_EDGE_ROW_21_Left_78
*510 PHY_EDGE_ROW_22_Left_79
*511 PHY_EDGE_ROW_23_Left_80
*512 PHY_EDGE_ROW_24_Left_81
*513 PHY_EDGE_ROW_25_Left_82
*514 PHY_EDGE_ROW_26_Left_83
*515 PHY_EDGE_ROW_27_Left_84
*516 PHY_EDGE_ROW_28_Left_85
*517 PHY_EDGE_ROW_29_Left_86
*518 PHY_EDGE_ROW_30_Left_87
*519 PHY_EDGE_ROW_31_Left_88
*520 PHY_EDGE_ROW_32_Left_89
*521 PHY_EDGE_ROW_33_Left_90
*522 PHY_EDGE_ROW_34_Left_91
*523 PHY_EDGE_ROW_35_Left_92
*524 PHY_EDGE_ROW_36_Left_93
*525 PHY_EDGE_ROW_37_Left_94
*526 PHY_EDGE_ROW_38_Left_95
*527 PHY_EDGE_ROW_39_Left_96
*528 PHY_EDGE_ROW_40_Left_97
*529 PHY_EDGE_ROW_41_Left_98
*530 PHY_EDGE_ROW_42_Left_99
*531 PHY_EDGE_ROW_43_Left_100
*532 PHY_EDGE_ROW_44_Left_101
*533 PHY_EDGE_ROW_45_Left_102
*534 PHY_EDGE_ROW_46_Left_103
*535 PHY_EDGE_ROW_47_Left_104
*536 PHY_EDGE_ROW_48_Left_105
*537 PHY_EDGE_ROW_49_Left_106
*538 PHY_EDGE_ROW_50_Left_107
*539 PHY_EDGE_ROW_51_Left_108
*540 PHY_EDGE_ROW_52_Left_109
*541 PHY_EDGE_ROW_53_Left_110
*542 PHY_EDGE_ROW_54_Left_111
*543 PHY_EDGE_ROW_55_Left_112
*544 PHY_EDGE_ROW_56_Left_113
*545 clkbuf_0_clk
*546 clkbuf_2_0__f_clk
*547 clkbuf_2_1__f_clk
*548 clkbuf_2_2__f_clk
*549 clkbuf_2_3__f_clk
*550 clkload0
*551 clkload1
*552 rebuffer1
*553 rebuffer2
*554 rebuffer3
*555 rebuffer4
*556 rebuffer5
*557 rebuffer6
*558 rebuffer7
*559 rebuffer8
*560 rebuffer9
*561 rebuffer10
*562 rebuffer11
*563 rebuffer12
*564 rebuffer13
*565 rebuffer14
*566 rebuffer15
*567 FILLER_0_1
*568 FILLER_0_33
*569 FILLER_0_65
*570 FILLER_0_97
*571 FILLER_0_129
*572 FILLER_0_161
*573 FILLER_0_193
*574 FILLER_0_225
*575 FILLER_0_257
*576 FILLER_0_289
*577 FILLER_0_321
*578 FILLER_0_353
*579 FILLER_0_385
*580 FILLER_0_417
*581 FILLER_1_1
*582 FILLER_1_33
*583 FILLER_1_65
*584 FILLER_1_97
*585 FILLER_1_129
*586 FILLER_1_161
*587 FILLER_1_193
*588 FILLER_1_225
*589 FILLER_1_257
*590 FILLER_1_289
*591 FILLER_1_321
*592 FILLER_1_353
*593 FILLER_1_385
*594 FILLER_1_417
*595 FILLER_2_1
*596 FILLER_2_33
*597 FILLER_2_65
*598 FILLER_2_97
*599 FILLER_2_129
*600 FILLER_2_161
*601 FILLER_2_193
*602 FILLER_2_225
*603 FILLER_2_257
*604 FILLER_2_289
*605 FILLER_2_321
*606 FILLER_2_353
*607 FILLER_2_385
*608 FILLER_2_417
*609 FILLER_3_1
*610 FILLER_3_33
*611 FILLER_3_65
*612 FILLER_3_97
*613 FILLER_3_129
*614 FILLER_3_161
*615 FILLER_3_193
*616 FILLER_3_225
*617 FILLER_3_257
*618 FILLER_3_289
*619 FILLER_3_321
*620 FILLER_3_353
*621 FILLER_3_385
*622 FILLER_3_417
*623 FILLER_4_1
*624 FILLER_4_33
*625 FILLER_4_65
*626 FILLER_4_97
*627 FILLER_4_129
*628 FILLER_4_161
*629 FILLER_4_193
*630 FILLER_4_225
*631 FILLER_4_257
*632 FILLER_4_289
*633 FILLER_4_321
*634 FILLER_4_353
*635 FILLER_4_385
*636 FILLER_4_417
*637 FILLER_5_1
*638 FILLER_5_33
*639 FILLER_5_65
*640 FILLER_5_97
*641 FILLER_5_129
*642 FILLER_5_161
*643 FILLER_5_193
*644 FILLER_5_225
*645 FILLER_5_257
*646 FILLER_5_289
*647 FILLER_5_321
*648 FILLER_5_353
*649 FILLER_5_385
*650 FILLER_5_417
*651 FILLER_6_1
*652 FILLER_6_33
*653 FILLER_6_65
*654 FILLER_6_97
*655 FILLER_6_129
*656 FILLER_6_161
*657 FILLER_6_193
*658 FILLER_6_225
*659 FILLER_6_257
*660 FILLER_6_289
*661 FILLER_6_321
*662 FILLER_6_353
*663 FILLER_6_385
*664 FILLER_6_417
*665 FILLER_7_1
*666 FILLER_7_33
*667 FILLER_7_65
*668 FILLER_7_97
*669 FILLER_7_129
*670 FILLER_7_161
*671 FILLER_7_193
*672 FILLER_7_225
*673 FILLER_7_257
*674 FILLER_7_289
*675 FILLER_7_321
*676 FILLER_7_353
*677 FILLER_7_385
*678 FILLER_7_417
*679 FILLER_8_1
*680 FILLER_8_33
*681 FILLER_8_65
*682 FILLER_8_97
*683 FILLER_8_129
*684 FILLER_8_161
*685 FILLER_8_193
*686 FILLER_8_225
*687 FILLER_8_257
*688 FILLER_8_289
*689 FILLER_8_321
*690 FILLER_8_353
*691 FILLER_8_385
*692 FILLER_8_417
*693 FILLER_9_1
*694 FILLER_9_33
*695 FILLER_9_65
*696 FILLER_9_97
*697 FILLER_9_129
*698 FILLER_9_161
*699 FILLER_9_193
*700 FILLER_9_225
*701 FILLER_9_257
*702 FILLER_9_289
*703 FILLER_9_321
*704 FILLER_9_353
*705 FILLER_9_385
*706 FILLER_9_417
*707 FILLER_10_1
*708 FILLER_10_33
*709 FILLER_10_65
*710 FILLER_10_97
*711 FILLER_10_129
*712 FILLER_10_161
*713 FILLER_10_193
*714 FILLER_10_225
*715 FILLER_10_257
*716 FILLER_10_289
*717 FILLER_10_321
*718 FILLER_10_353
*719 FILLER_10_385
*720 FILLER_10_417
*721 FILLER_11_1
*722 FILLER_11_33
*723 FILLER_11_65
*724 FILLER_11_97
*725 FILLER_11_129
*726 FILLER_11_161
*727 FILLER_11_193
*728 FILLER_11_225
*729 FILLER_11_257
*730 FILLER_11_289
*731 FILLER_11_321
*732 FILLER_11_353
*733 FILLER_11_385
*734 FILLER_11_417
*735 FILLER_12_1
*736 FILLER_12_33
*737 FILLER_12_65
*738 FILLER_12_97
*739 FILLER_12_129
*740 FILLER_12_161
*741 FILLER_12_193
*742 FILLER_12_225
*743 FILLER_12_257
*744 FILLER_12_289
*745 FILLER_12_321
*746 FILLER_12_353
*747 FILLER_12_385
*748 FILLER_12_417
*749 FILLER_13_1
*750 FILLER_13_33
*751 FILLER_13_65
*752 FILLER_13_97
*753 FILLER_13_129
*754 FILLER_13_161
*755 FILLER_13_193
*756 FILLER_13_225
*757 FILLER_13_257
*758 FILLER_13_289
*759 FILLER_13_321
*760 FILLER_13_353
*761 FILLER_13_385
*762 FILLER_13_417
*763 FILLER_14_1
*764 FILLER_14_33
*765 FILLER_14_65
*766 FILLER_14_97
*767 FILLER_14_129
*768 FILLER_14_161
*769 FILLER_14_177
*770 FILLER_14_185
*771 FILLER_14_187
*772 FILLER_14_193
*773 FILLER_14_225
*774 FILLER_14_257
*775 FILLER_14_289
*776 FILLER_14_321
*777 FILLER_14_353
*778 FILLER_14_385
*779 FILLER_14_417
*780 FILLER_15_1
*781 FILLER_15_33
*782 FILLER_15_65
*783 FILLER_15_97
*784 FILLER_15_129
*785 FILLER_15_161
*786 FILLER_15_177
*787 FILLER_15_185
*788 FILLER_15_189
*789 FILLER_15_221
*790 FILLER_15_253
*791 FILLER_15_285
*792 FILLER_15_317
*793 FILLER_15_349
*794 FILLER_15_381
*795 FILLER_15_413
*796 FILLER_16_1
*797 FILLER_16_33
*798 FILLER_16_65
*799 FILLER_16_97
*800 FILLER_16_129
*801 FILLER_16_161
*802 FILLER_16_169
*803 FILLER_16_173
*804 FILLER_16_177
*805 FILLER_16_184
*806 FILLER_16_191
*807 FILLER_16_197
*808 FILLER_16_229
*809 FILLER_16_261
*810 FILLER_16_293
*811 FILLER_16_325
*812 FILLER_16_357
*813 FILLER_16_389
*814 FILLER_17_1
*815 FILLER_17_33
*816 FILLER_17_65
*817 FILLER_17_97
*818 FILLER_17_129
*819 FILLER_17_161
*820 FILLER_17_177
*821 FILLER_17_179
*822 FILLER_17_184
*823 FILLER_17_189
*824 FILLER_17_193
*825 FILLER_17_208
*826 FILLER_17_240
*827 FILLER_17_272
*828 FILLER_17_304
*829 FILLER_17_336
*830 FILLER_17_368
*831 FILLER_17_400
*832 FILLER_17_416
*833 FILLER_17_420
*834 FILLER_18_1
*835 FILLER_18_33
*836 FILLER_18_65
*837 FILLER_18_97
*838 FILLER_18_129
*839 FILLER_18_161
*840 FILLER_18_177
*841 FILLER_18_182
*842 FILLER_18_190
*843 FILLER_18_197
*844 FILLER_18_229
*845 FILLER_18_261
*846 FILLER_18_293
*847 FILLER_18_325
*848 FILLER_18_357
*849 FILLER_18_389
*850 FILLER_19_1
*851 FILLER_19_33
*852 FILLER_19_65
*853 FILLER_19_97
*854 FILLER_19_129
*855 FILLER_19_150
*856 FILLER_19_182
*857 FILLER_19_214
*858 FILLER_19_222
*859 FILLER_19_226
*860 FILLER_19_230
*861 FILLER_19_262
*862 FILLER_19_294
*863 FILLER_19_326
*864 FILLER_19_358
*865 FILLER_19_390
*866 FILLER_19_406
*867 FILLER_19_414
*868 FILLER_19_418
*869 FILLER_19_420
*870 FILLER_20_1
*871 FILLER_20_33
*872 FILLER_20_65
*873 FILLER_20_97
*874 FILLER_20_129
*875 FILLER_20_141
*876 FILLER_20_165
*877 FILLER_20_174
*878 FILLER_20_190
*879 FILLER_20_194
*880 FILLER_20_202
*881 FILLER_20_218
*882 FILLER_20_220
*883 FILLER_20_223
*884 FILLER_20_255
*885 FILLER_20_287
*886 FILLER_20_319
*887 FILLER_20_351
*888 FILLER_20_383
*889 FILLER_20_415
*890 FILLER_20_419
*891 FILLER_21_1
*892 FILLER_21_33
*893 FILLER_21_65
*894 FILLER_21_97
*895 FILLER_21_129
*896 FILLER_21_137
*897 FILLER_21_141
*898 FILLER_21_151
*899 FILLER_21_167
*900 FILLER_21_171
*901 FILLER_21_173
*902 FILLER_21_179
*903 FILLER_21_184
*904 FILLER_21_191
*905 FILLER_21_200
*906 FILLER_21_208
*907 FILLER_21_210
*908 FILLER_21_217
*909 FILLER_21_241
*910 FILLER_21_273
*911 FILLER_21_305
*912 FILLER_21_337
*913 FILLER_21_369
*914 FILLER_21_401
*915 FILLER_21_417
*916 FILLER_22_1
*917 FILLER_22_33
*918 FILLER_22_65
*919 FILLER_22_97
*920 FILLER_22_129
*921 FILLER_22_161
*922 FILLER_22_197
*923 FILLER_22_201
*924 FILLER_22_207
*925 FILLER_22_212
*926 FILLER_22_244
*927 FILLER_22_276
*928 FILLER_22_292
*929 FILLER_22_294
*930 FILLER_22_312
*931 FILLER_22_320
*932 FILLER_22_331
*933 FILLER_22_333
*934 FILLER_22_339
*935 FILLER_22_371
*936 FILLER_22_379
*937 FILLER_22_383
*938 FILLER_22_388
*939 FILLER_22_396
*940 FILLER_22_400
*941 FILLER_22_416
*942 FILLER_22_420
*943 FILLER_23_1
*944 FILLER_23_33
*945 FILLER_23_65
*946 FILLER_23_97
*947 FILLER_23_129
*948 FILLER_23_161
*949 FILLER_23_177
*950 FILLER_23_185
*951 FILLER_23_192
*952 FILLER_23_224
*953 FILLER_23_256
*954 FILLER_23_307
*955 FILLER_23_315
*956 FILLER_23_323
*957 FILLER_23_342
*958 FILLER_23_357
*959 FILLER_23_365
*960 FILLER_23_369
*961 FILLER_23_387
*962 FILLER_23_393
*963 FILLER_23_399
*964 FILLER_23_405
*965 FILLER_24_1
*966 FILLER_24_33
*967 FILLER_24_65
*968 FILLER_24_97
*969 FILLER_24_129
*970 FILLER_24_161
*971 FILLER_24_177
*972 FILLER_24_185
*973 FILLER_24_189
*974 FILLER_24_191
*975 FILLER_24_196
*976 FILLER_24_228
*977 FILLER_24_260
*978 FILLER_24_292
*979 FILLER_24_297
*980 FILLER_24_302
*981 FILLER_24_338
*982 FILLER_24_344
*983 FILLER_24_350
*984 FILLER_24_355
*985 FILLER_24_360
*986 FILLER_24_376
*987 FILLER_24_380
*988 FILLER_24_382
*989 FILLER_24_386
*990 FILLER_24_405
*991 FILLER_24_411
*992 FILLER_24_419
*993 FILLER_25_1
*994 FILLER_25_33
*995 FILLER_25_65
*996 FILLER_25_97
*997 FILLER_25_129
*998 FILLER_25_161
*999 FILLER_25_164
*1000 FILLER_25_166
*1001 FILLER_25_174
*1002 FILLER_25_182
*1003 FILLER_25_186
*1004 FILLER_25_191
*1005 FILLER_25_223
*1006 FILLER_25_234
*1007 FILLER_25_266
*1008 FILLER_25_298
*1009 FILLER_25_330
*1010 FILLER_25_338
*1011 FILLER_25_340
*1012 FILLER_25_358
*1013 FILLER_25_374
*1014 FILLER_25_376
*1015 FILLER_25_386
*1016 FILLER_25_390
*1017 FILLER_25_392
*1018 FILLER_25_406
*1019 FILLER_25_414
*1020 FILLER_25_418
*1021 FILLER_25_420
*1022 FILLER_26_1
*1023 FILLER_26_33
*1024 FILLER_26_65
*1025 FILLER_26_97
*1026 FILLER_26_129
*1027 FILLER_26_133
*1028 FILLER_26_137
*1029 FILLER_26_153
*1030 FILLER_26_176
*1031 FILLER_26_184
*1032 FILLER_26_186
*1033 FILLER_26_191
*1034 FILLER_26_196
*1035 FILLER_26_200
*1036 FILLER_26_202
*1037 FILLER_26_207
*1038 FILLER_26_215
*1039 FILLER_26_219
*1040 FILLER_26_221
*1041 FILLER_26_241
*1042 FILLER_26_273
*1043 FILLER_26_305
*1044 FILLER_26_337
*1045 FILLER_26_369
*1046 FILLER_26_385
*1047 FILLER_26_393
*1048 FILLER_26_397
*1049 FILLER_26_401
*1050 FILLER_26_417
*1051 FILLER_27_1
*1052 FILLER_27_33
*1053 FILLER_27_65
*1054 FILLER_27_97
*1055 FILLER_27_113
*1056 FILLER_27_121
*1057 FILLER_27_123
*1058 FILLER_27_144
*1059 FILLER_27_176
*1060 FILLER_27_184
*1061 FILLER_27_188
*1062 FILLER_27_190
*1063 FILLER_27_193
*1064 FILLER_27_225
*1065 FILLER_27_257
*1066 FILLER_27_259
*1067 FILLER_27_277
*1068 FILLER_27_283
*1069 FILLER_27_315
*1070 FILLER_27_347
*1071 FILLER_27_379
*1072 FILLER_27_383
*1073 FILLER_27_401
*1074 FILLER_27_407
*1075 FILLER_27_415
*1076 FILLER_27_419
*1077 FILLER_28_1
*1078 FILLER_28_33
*1079 FILLER_28_65
*1080 FILLER_28_97
*1081 FILLER_28_129
*1082 FILLER_28_161
*1083 FILLER_28_177
*1084 FILLER_28_203
*1085 FILLER_28_235
*1086 FILLER_28_251
*1087 FILLER_28_259
*1088 FILLER_28_265
*1089 FILLER_28_271
*1090 FILLER_28_290
*1091 FILLER_28_306
*1092 FILLER_28_323
*1093 FILLER_28_355
*1094 FILLER_28_374
*1095 FILLER_28_390
*1096 FILLER_28_398
*1097 FILLER_28_402
*1098 FILLER_28_406
*1099 FILLER_28_414
*1100 FILLER_28_418
*1101 FILLER_28_420
*1102 FILLER_29_1
*1103 FILLER_29_33
*1104 FILLER_29_65
*1105 FILLER_29_97
*1106 FILLER_29_129
*1107 FILLER_29_161
*1108 FILLER_29_193
*1109 FILLER_29_225
*1110 FILLER_29_229
*1111 FILLER_29_235
*1112 FILLER_29_240
*1113 FILLER_29_256
*1114 FILLER_29_264
*1115 FILLER_29_271
*1116 FILLER_29_275
*1117 FILLER_29_280
*1118 FILLER_29_285
*1119 FILLER_29_293
*1120 FILLER_29_297
*1121 FILLER_29_306
*1122 FILLER_29_308
*1123 FILLER_29_326
*1124 FILLER_29_342
*1125 FILLER_29_350
*1126 FILLER_29_359
*1127 FILLER_29_391
*1128 FILLER_29_407
*1129 FILLER_29_415
*1130 FILLER_29_419
*1131 FILLER_30_1
*1132 FILLER_30_33
*1133 FILLER_30_65
*1134 FILLER_30_97
*1135 FILLER_30_129
*1136 FILLER_30_161
*1137 FILLER_30_193
*1138 FILLER_30_225
*1139 FILLER_30_243
*1140 FILLER_30_275
*1141 FILLER_30_289
*1142 FILLER_30_294
*1143 FILLER_30_310
*1144 FILLER_30_314
*1145 FILLER_30_319
*1146 FILLER_30_324
*1147 FILLER_30_356
*1148 FILLER_30_388
*1149 FILLER_30_420
*1150 FILLER_31_1
*1151 FILLER_31_33
*1152 FILLER_31_65
*1153 FILLER_31_97
*1154 FILLER_31_129
*1155 FILLER_31_161
*1156 FILLER_31_193
*1157 FILLER_31_225
*1158 FILLER_31_233
*1159 FILLER_31_243
*1160 FILLER_31_248
*1161 FILLER_31_280
*1162 FILLER_31_296
*1163 FILLER_31_304
*1164 FILLER_31_308
*1165 FILLER_31_310
*1166 FILLER_31_315
*1167 FILLER_31_319
*1168 FILLER_31_321
*1169 FILLER_31_335
*1170 FILLER_31_341
*1171 FILLER_31_357
*1172 FILLER_31_365
*1173 FILLER_31_378
*1174 FILLER_31_384
*1175 FILLER_31_389
*1176 FILLER_31_394
*1177 FILLER_31_400
*1178 FILLER_31_406
*1179 FILLER_31_414
*1180 FILLER_31_418
*1181 FILLER_31_420
*1182 FILLER_32_1
*1183 FILLER_32_33
*1184 FILLER_32_65
*1185 FILLER_32_97
*1186 FILLER_32_129
*1187 FILLER_32_161
*1188 FILLER_32_193
*1189 FILLER_32_225
*1190 FILLER_32_229
*1191 FILLER_32_235
*1192 FILLER_32_244
*1193 FILLER_32_253
*1194 FILLER_32_258
*1195 FILLER_32_274
*1196 FILLER_32_279
*1197 FILLER_32_295
*1198 FILLER_32_299
*1199 FILLER_32_301
*1200 FILLER_32_319
*1201 FILLER_32_325
*1202 FILLER_32_330
*1203 FILLER_32_349
*1204 FILLER_32_357
*1205 FILLER_32_359
*1206 FILLER_32_377
*1207 FILLER_32_379
*1208 FILLER_32_393
*1209 FILLER_32_412
*1210 FILLER_32_420
*1211 FILLER_33_1
*1212 FILLER_33_33
*1213 FILLER_33_65
*1214 FILLER_33_97
*1215 FILLER_33_129
*1216 FILLER_33_161
*1217 FILLER_33_193
*1218 FILLER_33_209
*1219 FILLER_33_217
*1220 FILLER_33_221
*1221 FILLER_33_227
*1222 FILLER_33_236
*1223 FILLER_33_251
*1224 FILLER_33_260
*1225 FILLER_33_269
*1226 FILLER_33_273
*1227 FILLER_33_275
*1228 FILLER_33_280
*1229 FILLER_33_312
*1230 FILLER_33_319
*1231 FILLER_33_327
*1232 FILLER_33_335
*1233 FILLER_33_367
*1234 FILLER_33_386
*1235 FILLER_33_390
*1236 FILLER_33_395
*1237 FILLER_33_403
*1238 FILLER_33_408
*1239 FILLER_33_416
*1240 FILLER_33_420
*1241 FILLER_34_1
*1242 FILLER_34_33
*1243 FILLER_34_65
*1244 FILLER_34_97
*1245 FILLER_34_129
*1246 FILLER_34_161
*1247 FILLER_34_193
*1248 FILLER_34_209
*1249 FILLER_34_217
*1250 FILLER_34_224
*1251 FILLER_34_243
*1252 FILLER_34_247
*1253 FILLER_34_258
*1254 FILLER_34_267
*1255 FILLER_34_269
*1256 FILLER_34_287
*1257 FILLER_34_303
*1258 FILLER_34_311
*1259 FILLER_34_315
*1260 FILLER_34_324
*1261 FILLER_34_356
*1262 FILLER_34_388
*1263 FILLER_34_420
*1264 FILLER_35_1
*1265 FILLER_35_33
*1266 FILLER_35_65
*1267 FILLER_35_97
*1268 FILLER_35_129
*1269 FILLER_35_161
*1270 FILLER_35_193
*1271 FILLER_35_225
*1272 FILLER_35_229
*1273 FILLER_35_247
*1274 FILLER_35_256
*1275 FILLER_35_265
*1276 FILLER_35_297
*1277 FILLER_35_329
*1278 FILLER_35_361
*1279 FILLER_35_393
*1280 FILLER_35_409
*1281 FILLER_35_417
*1282 FILLER_36_1
*1283 FILLER_36_33
*1284 FILLER_36_65
*1285 FILLER_36_97
*1286 FILLER_36_129
*1287 FILLER_36_161
*1288 FILLER_36_193
*1289 FILLER_36_225
*1290 FILLER_36_233
*1291 FILLER_36_235
*1292 FILLER_36_240
*1293 FILLER_36_244
*1294 FILLER_36_252
*1295 FILLER_36_257
*1296 FILLER_36_289
*1297 FILLER_36_321
*1298 FILLER_36_353
*1299 FILLER_36_385
*1300 FILLER_36_417
*1301 FILLER_37_1
*1302 FILLER_37_33
*1303 FILLER_37_65
*1304 FILLER_37_97
*1305 FILLER_37_129
*1306 FILLER_37_161
*1307 FILLER_37_193
*1308 FILLER_37_225
*1309 FILLER_37_257
*1310 FILLER_37_273
*1311 FILLER_37_281
*1312 FILLER_37_285
*1313 FILLER_37_287
*1314 FILLER_37_295
*1315 FILLER_37_299
*1316 FILLER_37_304
*1317 FILLER_37_336
*1318 FILLER_37_338
*1319 FILLER_37_342
*1320 FILLER_37_374
*1321 FILLER_37_406
*1322 FILLER_37_414
*1323 FILLER_37_418
*1324 FILLER_37_420
*1325 FILLER_38_1
*1326 FILLER_38_33
*1327 FILLER_38_65
*1328 FILLER_38_97
*1329 FILLER_38_129
*1330 FILLER_38_161
*1331 FILLER_38_193
*1332 FILLER_38_225
*1333 FILLER_38_257
*1334 FILLER_38_273
*1335 FILLER_38_281
*1336 FILLER_38_283
*1337 FILLER_38_286
*1338 FILLER_38_305
*1339 FILLER_38_311
*1340 FILLER_38_319
*1341 FILLER_38_323
*1342 FILLER_38_325
*1343 FILLER_38_332
*1344 FILLER_38_351
*1345 FILLER_38_359
*1346 FILLER_38_374
*1347 FILLER_38_378
*1348 FILLER_38_382
*1349 FILLER_38_403
*1350 FILLER_38_409
*1351 FILLER_38_417
*1352 FILLER_39_1
*1353 FILLER_39_33
*1354 FILLER_39_65
*1355 FILLER_39_97
*1356 FILLER_39_129
*1357 FILLER_39_161
*1358 FILLER_39_193
*1359 FILLER_39_225
*1360 FILLER_39_233
*1361 FILLER_39_235
*1362 FILLER_39_239
*1363 FILLER_39_245
*1364 FILLER_39_249
*1365 FILLER_39_254
*1366 FILLER_39_271
*1367 FILLER_39_279
*1368 FILLER_39_287
*1369 FILLER_39_298
*1370 FILLER_39_302
*1371 FILLER_39_304
*1372 FILLER_39_309
*1373 FILLER_39_324
*1374 FILLER_39_343
*1375 FILLER_39_363
*1376 FILLER_39_379
*1377 FILLER_39_383
*1378 FILLER_39_401
*1379 FILLER_39_413
*1380 FILLER_39_419
*1381 FILLER_40_1
*1382 FILLER_40_33
*1383 FILLER_40_65
*1384 FILLER_40_97
*1385 FILLER_40_129
*1386 FILLER_40_161
*1387 FILLER_40_193
*1388 FILLER_40_225
*1389 FILLER_40_229
*1390 FILLER_40_247
*1391 FILLER_40_249
*1392 FILLER_40_267
*1393 FILLER_40_271
*1394 FILLER_40_273
*1395 FILLER_40_277
*1396 FILLER_40_296
*1397 FILLER_40_312
*1398 FILLER_40_320
*1399 FILLER_40_324
*1400 FILLER_40_326
*1401 FILLER_40_331
*1402 FILLER_40_337
*1403 FILLER_40_350
*1404 FILLER_40_382
*1405 FILLER_40_390
*1406 FILLER_40_392
*1407 FILLER_40_396
*1408 FILLER_40_409
*1409 FILLER_40_417
*1410 FILLER_41_1
*1411 FILLER_41_33
*1412 FILLER_41_65
*1413 FILLER_41_97
*1414 FILLER_41_129
*1415 FILLER_41_161
*1416 FILLER_41_193
*1417 FILLER_41_225
*1418 FILLER_41_233
*1419 FILLER_41_235
*1420 FILLER_41_240
*1421 FILLER_41_244
*1422 FILLER_41_249
*1423 FILLER_41_255
*1424 FILLER_41_287
*1425 FILLER_41_319
*1426 FILLER_41_335
*1427 FILLER_41_339
*1428 FILLER_41_341
*1429 FILLER_41_349
*1430 FILLER_41_381
*1431 FILLER_41_413
*1432 FILLER_42_1
*1433 FILLER_42_33
*1434 FILLER_42_65
*1435 FILLER_42_97
*1436 FILLER_42_129
*1437 FILLER_42_161
*1438 FILLER_42_193
*1439 FILLER_42_225
*1440 FILLER_42_257
*1441 FILLER_42_289
*1442 FILLER_42_321
*1443 FILLER_42_353
*1444 FILLER_42_385
*1445 FILLER_42_417
*1446 FILLER_43_1
*1447 FILLER_43_33
*1448 FILLER_43_65
*1449 FILLER_43_97
*1450 FILLER_43_129
*1451 FILLER_43_161
*1452 FILLER_43_193
*1453 FILLER_43_225
*1454 FILLER_43_257
*1455 FILLER_43_289
*1456 FILLER_43_321
*1457 FILLER_43_353
*1458 FILLER_43_394
*1459 FILLER_43_396
*1460 FILLER_43_401
*1461 FILLER_43_417
*1462 FILLER_44_1
*1463 FILLER_44_33
*1464 FILLER_44_65
*1465 FILLER_44_97
*1466 FILLER_44_129
*1467 FILLER_44_161
*1468 FILLER_44_193
*1469 FILLER_44_225
*1470 FILLER_44_257
*1471 FILLER_44_289
*1472 FILLER_44_321
*1473 FILLER_44_323
*1474 FILLER_44_328
*1475 FILLER_44_333
*1476 FILLER_44_341
*1477 FILLER_44_345
*1478 FILLER_44_349
*1479 FILLER_44_381
*1480 FILLER_44_389
*1481 FILLER_44_407
*1482 FILLER_44_415
*1483 FILLER_44_419
*1484 FILLER_45_1
*1485 FILLER_45_33
*1486 FILLER_45_65
*1487 FILLER_45_97
*1488 FILLER_45_129
*1489 FILLER_45_161
*1490 FILLER_45_193
*1491 FILLER_45_225
*1492 FILLER_45_257
*1493 FILLER_45_289
*1494 FILLER_45_305
*1495 FILLER_45_313
*1496 FILLER_45_317
*1497 FILLER_45_335
*1498 FILLER_45_341
*1499 FILLER_45_343
*1500 FILLER_45_357
*1501 FILLER_45_363
*1502 FILLER_45_371
*1503 FILLER_45_392
*1504 FILLER_45_405
*1505 FILLER_45_410
*1506 FILLER_45_418
*1507 FILLER_45_420
*1508 FILLER_46_1
*1509 FILLER_46_33
*1510 FILLER_46_65
*1511 FILLER_46_97
*1512 FILLER_46_129
*1513 FILLER_46_161
*1514 FILLER_46_193
*1515 FILLER_46_225
*1516 FILLER_46_257
*1517 FILLER_46_289
*1518 FILLER_46_305
*1519 FILLER_46_313
*1520 FILLER_46_317
*1521 FILLER_46_319
*1522 FILLER_46_323
*1523 FILLER_46_342
*1524 FILLER_46_350
*1525 FILLER_46_371
*1526 FILLER_46_379
*1527 FILLER_46_383
*1528 FILLER_46_389
*1529 FILLER_46_395
*1530 FILLER_46_411
*1531 FILLER_46_419
*1532 FILLER_47_1
*1533 FILLER_47_33
*1534 FILLER_47_65
*1535 FILLER_47_97
*1536 FILLER_47_129
*1537 FILLER_47_161
*1538 FILLER_47_193
*1539 FILLER_47_225
*1540 FILLER_47_257
*1541 FILLER_47_289
*1542 FILLER_47_321
*1543 FILLER_47_329
*1544 FILLER_47_335
*1545 FILLER_47_341
*1546 FILLER_47_373
*1547 FILLER_47_405
*1548 FILLER_48_1
*1549 FILLER_48_33
*1550 FILLER_48_65
*1551 FILLER_48_97
*1552 FILLER_48_129
*1553 FILLER_48_161
*1554 FILLER_48_193
*1555 FILLER_48_225
*1556 FILLER_48_257
*1557 FILLER_48_289
*1558 FILLER_48_321
*1559 FILLER_48_353
*1560 FILLER_48_385
*1561 FILLER_48_417
*1562 FILLER_49_1
*1563 FILLER_49_33
*1564 FILLER_49_65
*1565 FILLER_49_97
*1566 FILLER_49_129
*1567 FILLER_49_161
*1568 FILLER_49_193
*1569 FILLER_49_225
*1570 FILLER_49_257
*1571 FILLER_49_289
*1572 FILLER_49_321
*1573 FILLER_49_353
*1574 FILLER_49_385
*1575 FILLER_49_417
*1576 FILLER_50_1
*1577 FILLER_50_33
*1578 FILLER_50_65
*1579 FILLER_50_97
*1580 FILLER_50_129
*1581 FILLER_50_161
*1582 FILLER_50_193
*1583 FILLER_50_225
*1584 FILLER_50_257
*1585 FILLER_50_289
*1586 FILLER_50_321
*1587 FILLER_50_353
*1588 FILLER_50_385
*1589 FILLER_50_417
*1590 FILLER_51_1
*1591 FILLER_51_33
*1592 FILLER_51_65
*1593 FILLER_51_97
*1594 FILLER_51_129
*1595 FILLER_51_161
*1596 FILLER_51_193
*1597 FILLER_51_225
*1598 FILLER_51_257
*1599 FILLER_51_289
*1600 FILLER_51_321
*1601 FILLER_51_353
*1602 FILLER_51_385
*1603 FILLER_51_417
*1604 FILLER_52_1
*1605 FILLER_52_33
*1606 FILLER_52_65
*1607 FILLER_52_97
*1608 FILLER_52_129
*1609 FILLER_52_161
*1610 FILLER_52_193
*1611 FILLER_52_225
*1612 FILLER_52_257
*1613 FILLER_52_289
*1614 FILLER_52_321
*1615 FILLER_52_353
*1616 FILLER_52_385
*1617 FILLER_52_417
*1618 FILLER_53_1
*1619 FILLER_53_33
*1620 FILLER_53_65
*1621 FILLER_53_97
*1622 FILLER_53_129
*1623 FILLER_53_161
*1624 FILLER_53_193
*1625 FILLER_53_225
*1626 FILLER_53_257
*1627 FILLER_53_289
*1628 FILLER_53_321
*1629 FILLER_53_353
*1630 FILLER_53_385
*1631 FILLER_53_417
*1632 FILLER_54_1
*1633 FILLER_54_33
*1634 FILLER_54_65
*1635 FILLER_54_97
*1636 FILLER_54_129
*1637 FILLER_54_161
*1638 FILLER_54_193
*1639 FILLER_54_225
*1640 FILLER_54_257
*1641 FILLER_54_289
*1642 FILLER_54_321
*1643 FILLER_54_353
*1644 FILLER_54_385
*1645 FILLER_54_417
*1646 FILLER_55_1
*1647 FILLER_55_33
*1648 FILLER_55_65
*1649 FILLER_55_97
*1650 FILLER_55_129
*1651 FILLER_55_161
*1652 FILLER_55_193
*1653 FILLER_55_225
*1654 FILLER_55_257
*1655 FILLER_55_289
*1656 FILLER_55_321
*1657 FILLER_55_353
*1658 FILLER_55_385
*1659 FILLER_55_417
*1660 FILLER_56_1
*1661 FILLER_56_33
*1662 FILLER_56_65
*1663 FILLER_56_97
*1664 FILLER_56_129
*1665 FILLER_56_161
*1666 FILLER_56_193